Version 4
SHEET 1 1076 680
WIRE 464 16 432 16
WIRE 832 16 752 16
WIRE 976 16 832 16
WIRE 224 48 144 48
WIRE 320 48 288 48
WIRE 352 48 320 48
WIRE 432 48 432 16
WIRE 432 48 352 48
WIRE -112 64 -208 64
WIRE 32 64 -32 64
WIRE 976 96 976 16
WIRE -208 112 -208 64
WIRE 32 112 32 64
WIRE 432 112 432 48
WIRE 464 112 432 112
WIRE 832 112 832 16
WIRE 352 128 352 48
WIRE 144 160 144 128
WIRE 176 160 144 160
WIRE 144 176 144 160
WIRE -208 208 -208 192
WIRE -64 208 -208 208
WIRE 32 208 32 192
WIRE 32 208 -64 208
WIRE -208 224 -208 208
WIRE -64 224 -64 208
WIRE 224 256 144 256
WIRE 320 256 320 48
WIRE 320 256 288 256
WIRE 176 320 176 160
WIRE 352 320 352 192
WIRE 352 320 176 320
WIRE 608 320 608 176
WIRE 608 320 352 320
WIRE 832 320 832 176
WIRE 832 320 608 320
WIRE 976 320 976 176
WIRE 976 320 832 320
WIRE 1056 320 976 320
WIRE 1056 336 1056 320
WIRE 608 352 608 320
FLAG -64 224 0
FLAG 608 352 0
FLAG 1056 336 0
SYMBOL voltage -208 96 R0
WINDOW 123 0 0 Left 0
WINDOW 39 0 0 Left 0
SYMATTR InstName V1
SYMATTR Value SINE(1 220 50)
SYMBOL res -16 48 R90
WINDOW 0 0 56 VBottom 2
WINDOW 3 32 56 VTop 2
SYMATTR InstName R1
SYMATTR Value 1K
SYMBOL ind2 16 96 R0
SYMATTR InstName L1
SYMATTR Value 200
SYMATTR Type ind
SYMBOL ind2 128 32 R0
SYMATTR InstName L2
SYMATTR Value 10
SYMATTR Type ind
SYMBOL ind2 128 160 R0
SYMATTR InstName L3
SYMATTR Value 10
SYMATTR Type ind
SYMBOL diode 224 64 R270
WINDOW 0 32 32 VTop 2
WINDOW 3 0 32 VBottom 2
SYMATTR InstName D1
SYMBOL diode 224 272 R270
WINDOW 0 32 32 VTop 2
WINDOW 3 0 32 VBottom 2
SYMATTR InstName D2
SYMBOL polcap 336 128 R0
WINDOW 3 24 56 Left 2
SYMATTR Value 1000µ
SYMATTR InstName C1
SYMATTR Description Capacitor
SYMATTR Type cap
SYMATTR SpiceLine V=4 Irms=3.72678 Rser=0.018 Lser=0
SYMBOL PowerProducts\\LT3010-5 608 64 R0
SYMATTR InstName U1
SYMBOL polcap 816 112 R0
WINDOW 3 24 56 Left 2
SYMATTR Value 1000µ
SYMATTR InstName C2
SYMATTR Description Capacitor
SYMATTR Type cap
SYMATTR SpiceLine V=6.3 Irms=4.08248 Rser=0.015 Lser=0
SYMBOL res 960 80 R0
SYMATTR InstName R2
SYMATTR Value 1K
TEXT -208 344 Left 2 !k l1 l2 l3 1
TEXT -200 368 Left 2 !.tran 1
